SPECIES

Benzene
Fulvene

END

THERMO

Benzene                 H 6  C 6            G298.000   3000.000  1000.00       1
 9.13812000E+00 2.38544000E-02-8.81277000E-06 1.20990000E-09-1.82215000E-14    2
 5.20435000E+03-2.91157000E+01-4.84377000E+00 5.84276000E-02-2.94859000E-05    3
-6.93904000E-09 8.21253000E-12 9.18178000E+03 4.38898000E+01                   4

Fulvene                 H 6  C 6            G100.000   5000.000  805.46        1
 8.03854524E+00 2.63125688E-02-1.10666573E-05 2.16506341E-09-1.59276509E-13    2
 2.30601403E+04-1.96056398E+01 1.32399671E+00 1.57860236E-02 9.02377790E-05    3
-1.49304917E-07 6.78425903E-11 2.55649389E+04 2.01698122E+01                   4

END